@<TRIPOS>MOLECULE
C(C(Cl)(Cl)F)Cl_1
8	7	1	0	0
SMALL
USER_CHARGES
@<TRIPOS>ATOM
1	C1	-0.763856	0.129646	0.202478	C.3	1	UNNAMED	0.290000
2	C2	0.698733	-0.245278	-0.043520	C.3	1	UNNAMED	0.920000
3	Cl3	0.946433	-0.941921	-1.666511	Cl	1	UNNAMED	-0.290000
4	Cl4	1.794251	1.141368	0.196747	Cl	1	UNNAMED	-0.290000
5	F5	1.036657	-1.201438	0.871797	F	1	UNNAMED	-0.340000
6	Cl6	-1.416427	1.377517	-0.894811	Cl	1	UNNAMED	-0.290000
7	H3	-1.402252	-0.755409	0.106978	H	1	UNNAMED	0.000000
8	H4	-0.893540	0.495516	1.226843	H	1	UNNAMED	0.000000
@<TRIPOS>BOND
1	2	1	1
2	3	2	1
3	4	2	1
4	5	2	1
5	6	1	1
6	1	7	1
7	1	8	1
@<TRIPOS>SUBSTRUCTURE
1	UNNAMED
