@<TRIPOS>MOLECULE
Cc1ccc(C)c(C)c1C_1
24	24	1	0	0
SMALL
USER_CHARGES
@<TRIPOS>ATOM
1	C1	3.009960	0.221533	-0.159377	C.3	1	UNNAMED	0.143500
2	C2	1.573086	-0.214012	-0.047787	C.ar	1	UNNAMED	-0.143500
3	C3	1.302530	-1.578442	0.109288	C.ar	1	UNNAMED	-0.150000
4	C4	-0.006717	-2.039350	0.210632	C.ar	1	UNNAMED	-0.150000
5	C5	-1.085470	-1.148123	0.167454	C.ar	1	UNNAMED	-0.143500
6	C6	-2.478420	-1.705592	0.290233	C.3	1	UNNAMED	0.143500
7	C7	-0.836580	0.238312	0.037911	C.ar	1	UNNAMED	-0.143500
8	C8	-1.987737	1.217317	0.009507	C.3	1	UNNAMED	0.143500
9	C9	0.499091	0.702995	-0.122634	C.ar	1	UNNAMED	-0.143500
10	C10	0.771075	2.177907	-0.309650	C.3	1	UNNAMED	0.143500
11	H2	3.698808	-0.595700	0.080895	H	1	UNNAMED	0.000000
12	H3	3.221175	1.033679	0.543939	H	1	UNNAMED	0.000000
13	H4	3.227512	0.550142	-1.180471	H	1	UNNAMED	0.000000
14	H3	2.115199	-2.299958	0.152071	H	1	UNNAMED	0.150000
15	H3	-0.177732	-3.107156	0.326810	H	1	UNNAMED	0.150000
16	H2	-2.481915	-2.799092	0.222745	H	1	UNNAMED	0.000000
17	H3	-3.114272	-1.333524	-0.519886	H	1	UNNAMED	0.000000
18	H4	-2.911822	-1.430433	1.256939	H	1	UNNAMED	0.000000
19	H2	-2.246703	1.457738	-1.026255	H	1	UNNAMED	0.000000
20	H3	-1.734785	2.138721	0.543849	H	1	UNNAMED	0.000000
21	H4	-2.878110	0.827106	0.510204	H	1	UNNAMED	0.000000
22	H2	0.023272	2.637390	-0.963809	H	1	UNNAMED	0.000000
23	H3	0.764929	2.683226	0.660982	H	1	UNNAMED	0.000000
24	H4	1.733623	2.365315	-0.793592	H	1	UNNAMED	0.000000
@<TRIPOS>BOND
1	2	1	1
2	3	2	1
3	4	3	2
4	5	4	1
5	6	5	1
6	7	5	2
7	8	7	1
8	9	7	1
9	9	2	2
10	10	9	1
11	1	11	1
12	1	12	1
13	1	13	1
14	3	14	1
15	4	15	1
16	6	16	1
17	6	17	1
18	6	18	1
19	8	19	1
20	8	20	1
21	8	21	1
22	10	22	1
23	10	23	1
24	10	24	1
@<TRIPOS>SUBSTRUCTURE
1	UNNAMED
