@<TRIPOS>MOLECULE
C=CC=C_1
10	9	1	0	0
SMALL
USER_CHARGES
@<TRIPOS>ATOM
1	C1	1.545709	-0.319785	0.258623	C.2	1	UNNAMED	-0.300000
2	C2	0.695354	0.464106	-0.415074	C.2	1	UNNAMED	-0.150000
3	C3	-0.711475	0.592105	-0.120041	C.2	1	UNNAMED	-0.150000
4	C4	-1.534230	-0.435112	0.123712	C.2	1	UNNAMED	-0.300000
5	H2	2.602518	-0.327573	0.012186	H	1	UNNAMED	0.150000
6	H3	1.217983	-0.960355	1.071169	H	1	UNNAMED	0.150000
7	H3	1.078119	1.114679	-1.198968	H	1	UNNAMED	0.150000
8	H3	-1.119456	1.599466	-0.175693	H	1	UNNAMED	0.150000
9	H2	-1.181131	-1.460892	0.154913	H	1	UNNAMED	0.150000
10	H3	-2.593391	-0.266638	0.289173	H	1	UNNAMED	0.150000
@<TRIPOS>BOND
1	2	1	2
2	3	2	1
3	4	3	2
4	1	5	1
5	1	6	1
6	2	7	1
7	3	8	1
8	4	9	1
9	4	10	1
@<TRIPOS>SUBSTRUCTURE
1	UNNAMED
