@<TRIPOS>MOLECULE
c1cc(ccc1Cl)Cl_1
12	12	1	0	0
SMALL
USER_CHARGES
@<TRIPOS>ATOM
1	C1	1.298434	-0.515492	-0.056680	C.ar	1	UNNAMED	-0.150000
2	C2	0.203617	-1.383037	-0.025025	C.ar	1	UNNAMED	-0.150000
3	C3	-1.089990	-0.863664	0.031483	C.ar	1	UNNAMED	0.177000
4	C4	-1.298534	0.515555	0.056552	C.ar	1	UNNAMED	-0.150000
5	C5	-0.203656	1.383141	0.025084	C.ar	1	UNNAMED	-0.150000
6	C6	1.089972	0.863714	-0.031506	C.ar	1	UNNAMED	0.177000
7	Cl7	2.437882	1.931603	-0.070722	Cl	1	UNNAMED	-0.177000
8	Cl8	-2.437579	-1.931938	0.070817	Cl	1	UNNAMED	-0.177000
9	H3	2.306462	-0.919674	-0.100692	H	1	UNNAMED	0.150000
10	H3	0.365487	-2.457661	-0.044588	H	1	UNNAMED	0.150000
11	H3	-2.306594	0.919704	0.100402	H	1	UNNAMED	0.150000
12	H3	-0.365500	2.457748	0.044874	H	1	UNNAMED	0.150000
@<TRIPOS>BOND
1	2	1	1
2	3	2	2
3	4	3	1
4	5	4	2
5	6	5	1
6	6	1	2
7	7	6	1
8	8	3	1
9	1	9	1
10	2	10	1
11	4	11	1
12	5	12	1
@<TRIPOS>SUBSTRUCTURE
1	UNNAMED
