@<TRIPOS>MOLECULE
c1c(c(cc(c1Cl)OCC(=O)O)Cl)Cl_1
19	19	1	0	0
SMALL
USER_CHARGES
@<TRIPOS>ATOM
1	C1	2.490165	0.491408	-0.692962	C.ar	1	UNNAMED	-0.150000
2	C2	2.665553	-0.865013	-0.421173	C.ar	1	UNNAMED	0.177000
3	C3	1.695212	-1.557362	0.313011	C.ar	1	UNNAMED	0.177000
4	C4	0.549268	-0.895276	0.771096	C.ar	1	UNNAMED	-0.150000
5	C5	0.365761	0.459197	0.487466	C.ar	1	UNNAMED	0.082500
6	C6	1.349144	1.152451	-0.229479	C.ar	1	UNNAMED	0.177000
7	Cl7	1.180086	2.835960	-0.574841	Cl	1	UNNAMED	-0.177000
8	O8	-0.704852	1.167039	0.973315	O.3	1	UNNAMED	-0.362500
9	C9	-1.983361	0.608076	0.698221	C.3	1	UNNAMED	0.341000
10	C10	-2.377414	0.424118	-0.772013	C.2	1	UNNAMED	0.659000
11	O11	-1.645440	0.607423	-1.731879	O.2	1	UNNAMED	-0.570000
12	O12	-3.658544	-0.002572	-0.922223	O.3	1	UNNAMED	-0.650000
13	Cl13	1.864549	-3.231274	0.718013	Cl	1	UNNAMED	-0.177000
14	Cl14	4.108353	-1.622590	-0.991295	Cl	1	UNNAMED	-0.177000
15	H3	3.240998	1.038037	-1.256612	H	1	UNNAMED	0.150000
16	H3	-0.169478	-1.443210	1.369356	H	1	UNNAMED	0.150000
17	H3	-2.108885	-0.343998	1.227413	H	1	UNNAMED	0.000000
18	H4	-2.709390	1.310641	1.125066	H	1	UNNAMED	0.000000
19	H2	-4.151725	-0.133054	-0.090480	H	1	UNNAMED	0.500000
@<TRIPOS>BOND
1	2	1	2
2	3	2	1
3	4	3	2
4	5	4	1
5	6	5	2
6	6	1	1
7	7	6	1
8	8	5	1
9	9	8	1
10	10	9	1
11	11	10	2
12	12	10	1
13	13	3	1
14	14	2	1
15	1	15	1
16	4	16	1
17	9	17	1
18	9	18	1
19	12	19	1
@<TRIPOS>SUBSTRUCTURE
1	UNNAMED
