@<TRIPOS>MOLECULE
c1cc(c(cc1Cl)Cl)OCC(=O)O_1
19	19	1	0	0
SMALL
USER_CHARGES
@<TRIPOS>ATOM
1	C1	1.985363	1.142633	0.684821	C.ar	1	UNNAMED	-0.150000
2	C2	0.817681	0.560878	1.179426	C.ar	1	UNNAMED	-0.150000
3	C3	0.285476	-0.577549	0.562797	C.ar	1	UNNAMED	0.082500
4	C4	0.948825	-1.163999	-0.524683	C.ar	1	UNNAMED	0.177000
5	C5	2.130285	-0.589128	-1.008033	C.ar	1	UNNAMED	-0.150000
6	C6	2.635248	0.565231	-0.405015	C.ar	1	UNNAMED	0.177000
7	Cl7	4.086606	1.275585	-0.996126	Cl	1	UNNAMED	-0.177000
8	Cl8	0.399737	-2.613931	-1.277362	Cl	1	UNNAMED	-0.177000
9	O9	-0.829218	-1.104916	1.161518	O.3	1	UNNAMED	-0.362500
10	C10	-2.016998	-0.903553	0.403179	C.3	1	UNNAMED	0.341000
11	C11	-2.395658	0.534650	0.026571	C.2	1	UNNAMED	0.659000
12	O12	-2.116235	1.558641	0.623799	O.2	1	UNNAMED	-0.570000
13	O13	-3.145380	0.590226	-1.097187	O.3	1	UNNAMED	-0.650000
14	H3	2.386343	2.030672	1.168189	H	1	UNNAMED	0.150000
15	H3	0.314838	0.991593	2.043019	H	1	UNNAMED	0.150000
16	H3	2.660872	-1.042104	-1.843227	H	1	UNNAMED	0.150000
17	H3	-2.840949	-1.265031	1.032359	H	1	UNNAMED	0.000000
18	H4	-2.015071	-1.538861	-0.488648	H	1	UNNAMED	0.000000
19	H2	-3.291766	1.548964	-1.245395	H	1	UNNAMED	0.500000
@<TRIPOS>BOND
1	2	1	2
2	3	2	1
3	4	3	2
4	5	4	1
5	6	5	2
6	6	1	1
7	7	6	1
8	8	4	1
9	9	3	1
10	10	9	1
11	11	10	1
12	12	11	2
13	13	11	1
14	1	14	1
15	2	15	1
16	5	16	1
17	10	17	1
18	10	18	1
19	13	19	1
@<TRIPOS>SUBSTRUCTURE
1	UNNAMED
