@<TRIPOS>MOLECULE
c1cc(c(cc1Cl)Cl)OCC(=O)O_1
19	19	1	0	0
SMALL
USER_CHARGES
@<TRIPOS>ATOM
1	C1	1.965454	1.141893	0.689525	C.ar	1	UNNAMED	-0.150000
2	C2	0.809161	0.547432	1.191196	C.ar	1	UNNAMED	-0.150000
3	C3	0.278401	-0.587563	0.569225	C.ar	1	UNNAMED	0.082500
4	C4	0.936099	-1.160646	-0.527162	C.ar	1	UNNAMED	0.177000
5	C5	2.107792	-0.573380	-1.016839	C.ar	1	UNNAMED	-0.150000
6	C6	2.608600	0.578959	-0.411043	C.ar	1	UNNAMED	0.177000
7	Cl7	4.049953	1.301667	-1.015250	Cl	1	UNNAMED	-0.177000
8	Cl8	0.379716	-2.604724	-1.293796	Cl	1	UNNAMED	-0.177000
9	O9	-0.824634	-1.129974	1.168931	O.3	1	UNNAMED	-0.362500
10	C10	-2.023614	-0.903579	0.430057	C.3	1	UNNAMED	0.341000
11	C11	-2.354517	0.530508	0.018188	C.2	1	UNNAMED	0.659000
12	O12	-2.037988	1.558342	0.593211	O.2	1	UNNAMED	-0.570000
13	O13	-3.097026	0.583414	-1.112286	O.3	1	UNNAMED	-0.650000
14	H3	2.366079	2.027200	1.176220	H	1	UNNAMED	0.150000
15	H3	0.311441	0.968715	2.066657	H	1	UNNAMED	0.150000
16	H3	2.640902	-1.027760	-1.848884	H	1	UNNAMED	0.150000
17	H3	-2.855032	-1.237722	1.066582	H	1	UNNAMED	0.000000
18	H4	-2.045681	-1.554295	-0.450672	H	1	UNNAMED	0.000000
19	H2	-3.215105	1.541514	-1.293860	H	1	UNNAMED	0.500000
@<TRIPOS>BOND
1	2	1	2
2	3	2	1
3	4	3	2
4	5	4	1
5	6	5	2
6	6	1	1
7	7	6	1
8	8	4	1
9	9	3	1
10	10	9	1
11	11	10	1
12	12	11	2
13	13	11	1
14	1	14	1
15	2	15	1
16	5	16	1
17	10	17	1
18	10	18	1
19	13	19	1
@<TRIPOS>SUBSTRUCTURE
1	UNNAMED
