@<TRIPOS>MOLECULE
CC(=O)c1cc2ccccc2o1_1
20	21	1	0	0
SMALL
USER_CHARGES
@<TRIPOS>ATOM
1	C1	2.872562	-2.159952	0.367646	C.3	1	UNNAMED	0.061000
2	C2	2.723756	-0.672534	0.150113	C.2	1	UNNAMED	0.594000
3	O3	3.731540	0.027274	0.014554	O.2	1	UNNAMED	-0.570000
4	C4	1.379283	-0.138746	0.024836	C.ar	1	UNNAMED	0.055000
5	C5	0.946036	1.101439	-0.410331	C.ar	1	UNNAMED	-0.150000
6	C6	-0.470338	1.095961	-0.338629	C.ar	1	UNNAMED	0.000000
7	C7	-1.497451	2.006365	-0.653889	C.ar	1	UNNAMED	-0.150000
8	C8	-2.828658	1.648715	-0.376901	C.ar	1	UNNAMED	-0.150000
9	C9	-3.132037	0.401528	0.176009	C.ar	1	UNNAMED	-0.150000
10	C10	-2.129693	-0.536162	0.451558	C.ar	1	UNNAMED	-0.150000
11	C11	-0.816805	-0.145099	0.183923	C.ar	1	UNNAMED	0.140000
12	O12	0.299327	-0.904037	0.384778	O.2	1	UNNAMED	-0.280000
13	H2	3.930464	-2.411448	0.522663	H	1	UNNAMED	0.000000
14	H3	2.518670	-2.690919	-0.520504	H	1	UNNAMED	0.000000
15	H4	2.318684	-2.483692	1.253282	H	1	UNNAMED	0.000000
16	H3	1.587721	1.902119	-0.755177	H	1	UNNAMED	0.150000
17	H3	-1.273510	2.971230	-1.100290	H	1	UNNAMED	0.150000
18	H3	-3.632869	2.354657	-0.606679	H	1	UNNAMED	0.150000
19	H3	-4.171561	0.144167	0.372412	H	1	UNNAMED	0.150000
20	H3	-2.355123	-1.510864	0.860626	H	1	UNNAMED	0.150000
@<TRIPOS>BOND
1	2	1	1
2	3	2	2
3	4	2	1
4	5	4	2
5	6	5	1
6	7	6	2
7	8	7	1
8	9	8	2
9	10	9	1
10	11	10	2
11	11	6	1
12	12	11	1
13	12	4	1
14	1	13	1
15	1	14	1
16	1	15	1
17	5	16	1
18	7	17	1
19	8	18	1
20	9	19	1
21	10	20	1
@<TRIPOS>SUBSTRUCTURE
1	UNNAMED
