@<TRIPOS>MOLECULE
CCCCC(=O)C_1
19	18	1	0	0
SMALL
USER_CHARGES
@<TRIPOS>ATOM
1	C1	2.063380	-0.884158	0.054146	C.3	1	UNNAMED	0.000000
2	C2	1.223931	0.126164	0.822043	C.3	1	UNNAMED	0.000000
3	C3	0.562581	1.178207	-0.073145	C.3	1	UNNAMED	0.000000
4	C4	-0.498107	0.642744	-1.031194	C.3	1	UNNAMED	0.061000
5	C5	-1.843977	0.452203	-0.361614	C.2	1	UNNAMED	0.448000
6	O6	-2.658881	1.374157	-0.299106	O.2	1	UNNAMED	-0.570000
7	C7	-2.112312	-0.859698	0.324746	C.3	1	UNNAMED	0.061000
8	H2	2.812844	-0.382699	-0.566505	H	1	UNNAMED	0.000000
9	H3	2.590323	-1.542071	0.752914	H	1	UNNAMED	0.000000
10	H4	1.445680	-1.515190	-0.590723	H	1	UNNAMED	0.000000
11	H3	0.474496	-0.400502	1.420196	H	1	UNNAMED	0.000000
12	H4	1.878718	0.644945	1.533049	H	1	UNNAMED	0.000000
13	H3	1.345363	1.672967	-0.661554	H	1	UNNAMED	0.000000
14	H4	0.119877	1.949980	0.568840	H	1	UNNAMED	0.000000
15	H3	-0.198176	-0.284714	-1.526448	H	1	UNNAMED	0.000000
16	H4	-0.653774	1.374167	-1.834574	H	1	UNNAMED	0.000000
17	H2	-1.515985	-1.656513	-0.126358	H	1	UNNAMED	0.000000
18	H3	-3.168529	-1.117824	0.209730	H	1	UNNAMED	0.000000
19	H4	-1.867451	-0.772165	1.385557	H	1	UNNAMED	0.000000
@<TRIPOS>BOND
1	2	1	1
2	3	2	1
3	4	3	1
4	5	4	1
5	6	5	2
6	7	5	1
7	1	8	1
8	1	9	1
9	1	10	1
10	2	11	1
11	2	12	1
12	3	13	1
13	3	14	1
14	4	15	1
15	4	16	1
16	7	17	1
17	7	18	1
18	7	19	1
@<TRIPOS>SUBSTRUCTURE
1	UNNAMED
