@<TRIPOS>MOLECULE
C=CC#N_1
7	6	1	0	0
SMALL
USER_CHARGES
@<TRIPOS>ATOM
1	C1	-1.002622	-0.308047	0.018905	C.2	1	UNNAMED	-0.300000
2	C2	0.103828	0.408311	0.253551	C.2	1	UNNAMED	-0.085000
3	C3	1.372452	0.051040	-0.279030	C.1	1	UNNAMED	0.492100
4	N4	2.409721	-0.236286	-0.710631	N.1	1	UNNAMED	-0.557100
5	H2	-0.986431	-1.203897	-0.596413	H	1	UNNAMED	0.150000
6	H3	-1.956651	-0.009666	0.442440	H	1	UNNAMED	0.150000
7	H3	0.059702	1.298545	0.871178	H	1	UNNAMED	0.150000
@<TRIPOS>BOND
1	2	1	2
2	3	2	1
3	4	3	3
4	1	5	1
5	1	6	1
6	2	7	1
@<TRIPOS>SUBSTRUCTURE
1	UNNAMED
