@<TRIPOS>MOLECULE
CC=O_1
7	6	1	0	0
SMALL
USER_CHARGES
@<TRIPOS>ATOM
1	C1	0.631988	0.151515	-0.034175	C.3	1	UNNAMED	0.061000
2	C2	-0.823783	-0.191699	0.041013	C.2	1	UNNAMED	0.449000
3	O3	-1.250659	-1.215764	0.563921	O.2	1	UNNAMED	-0.570000
4	H2	1.227273	-0.636271	0.434031	H	1	UNNAMED	0.000000
5	H3	0.921968	0.251732	-1.082672	H	1	UNNAMED	0.000000
6	H4	0.804128	1.096032	0.487116	H	1	UNNAMED	0.000000
7	H3	-1.510913	0.544455	-0.409234	H	1	UNNAMED	0.060000
@<TRIPOS>BOND
1	2	1	1
2	3	2	2
3	1	4	1
4	1	5	1
5	1	6	1
6	2	7	1
@<TRIPOS>SUBSTRUCTURE
1	UNNAMED
