@<TRIPOS>MOLECULE
N_1
4	3	1	0	0
SMALL
USER_CHARGES
@<TRIPOS>ATOM
1	N1	0.008190	0.008775	-0.295378	N.3	1	UNNAMED	-1.080000
2	H1	-0.765327	-0.550680	0.061052	H	1	UNNAMED	0.360000
3	H2	-0.096342	0.931751	0.123598	H	1	UNNAMED	0.360000
4	H3	0.853479	-0.389846	0.110728	H	1	UNNAMED	0.360000
@<TRIPOS>BOND
1	1	2	1
2	1	3	1
3	1	4	1
@<TRIPOS>SUBSTRUCTURE
1	UNNAMED
