@<TRIPOS>MOLECULE
c1ccccc1_1
12	12	1	0	0
SMALL
USER_CHARGES
@<TRIPOS>ATOM
1	C1	-1.244831	-0.534069	-0.333067	C.ar	1	UNNAMED	-0.150000
2	C2	-0.121978	-1.360267	-0.283837	C.ar	1	UNNAMED	-0.150000
3	C3	1.122848	-0.826227	0.049317	C.ar	1	UNNAMED	-0.150000
4	C4	1.244845	0.534084	0.333019	C.ar	1	UNNAMED	-0.150000
5	C5	0.121991	1.360285	0.283779	C.ar	1	UNNAMED	-0.150000
6	C6	-1.122879	0.826199	-0.049147	C.ar	1	UNNAMED	-0.150000
7	H3	-2.214646	-0.950109	-0.592630	H	1	UNNAMED	0.150000
8	H3	-0.216970	-2.420014	-0.505041	H	1	UNNAMED	0.150000
9	H3	1.997585	-1.469943	0.087800	H	1	UNNAMED	0.150000
10	H3	2.214699	0.950160	0.592386	H	1	UNNAMED	0.150000
11	H3	0.217027	2.420071	0.504776	H	1	UNNAMED	0.150000
12	H3	-1.997692	1.469829	-0.087355	H	1	UNNAMED	0.150000
@<TRIPOS>BOND
1	2	1	2
2	3	2	1
3	4	3	2
4	5	4	1
5	6	5	2
6	6	1	1
7	1	7	1
8	2	8	1
9	3	9	1
10	4	10	1
11	5	11	1
12	6	12	1
@<TRIPOS>SUBSTRUCTURE
1	UNNAMED
