@<TRIPOS>MOLECULE
c1ccccc1_1
12	12	1	0	0
SMALL
USER_CHARGES
@<TRIPOS>ATOM
1	C1	1.084847	-0.860333	0.169528	C.ar	1	UNNAMED	-0.150000
2	C2	1.284663	0.520160	0.157689	C.ar	1	UNNAMED	-0.150000
3	C3	0.199825	1.380500	-0.011841	C.ar	1	UNNAMED	-0.150000
4	C4	-1.084842	0.860329	-0.169527	C.ar	1	UNNAMED	-0.150000
5	C5	-1.284670	-0.520162	-0.157687	C.ar	1	UNNAMED	-0.150000
6	C6	-0.199823	-1.380493	0.011826	C.ar	1	UNNAMED	-0.150000
7	H3	1.930021	-1.530589	0.301625	H	1	UNNAMED	0.150000
8	H3	2.285519	0.925382	0.280542	H	1	UNNAMED	0.150000
9	H3	0.355483	2.456005	-0.021088	H	1	UNNAMED	0.150000
10	H3	-1.930019	1.530583	-0.301571	H	1	UNNAMED	0.150000
11	H3	-2.285530	-0.925386	-0.280545	H	1	UNNAMED	0.150000
12	H3	-0.355474	-2.455995	0.021049	H	1	UNNAMED	0.150000
@<TRIPOS>BOND
1	2	1	2
2	3	2	1
3	4	3	2
4	5	4	1
5	6	5	2
6	6	1	1
7	1	7	1
8	2	8	1
9	3	9	1
10	4	10	1
11	5	11	1
12	6	12	1
@<TRIPOS>SUBSTRUCTURE
1	UNNAMED
