@<TRIPOS>MOLECULE
C(Br)(F)(F)F_1
5	4	1	0	0
SMALL
USER_CHARGES
@<TRIPOS>ATOM
1	C1	-0.089768	0.003377	-0.004719	C.3	1	UNNAMED	1.250000
2	Br2	1.831864	-0.068879	0.096258	Br	1	UNNAMED	-0.230000
3	F3	-0.610293	0.709915	1.025085	F	1	UNNAMED	-0.340000
4	F4	-0.500353	0.591410	-1.152005	F	1	UNNAMED	-0.340000
5	F5	-0.631449	-1.235823	0.035382	F	1	UNNAMED	-0.340000
@<TRIPOS>BOND
1	2	1	1
2	3	1	1
3	4	1	1
4	5	1	1
@<TRIPOS>SUBSTRUCTURE
1	UNNAMED
