@<TRIPOS>MOLECULE
C(Br)(Cl)(F)F_1
5	4	1	0	0
SMALL
USER_CHARGES
@<TRIPOS>ATOM
1	C1	0.056221	0.085399	0.013289	C.3	1	UNNAMED	1.200000
2	Br2	-1.789821	-0.484007	-0.129780	Br	1	UNNAMED	-0.230000
3	Cl3	1.136063	-1.301505	-0.129028	Cl	1	UNNAMED	-0.290000
4	F4	0.258840	0.708221	1.201852	F	1	UNNAMED	-0.340000
5	F5	0.338698	0.991893	-0.956332	F	1	UNNAMED	-0.340000
@<TRIPOS>BOND
1	2	1	1
2	3	1	1
3	4	1	1
4	5	1	1
@<TRIPOS>SUBSTRUCTURE
1	UNNAMED
