@<TRIPOS>MOLECULE
C(=O)=O_1
3	2	1	0	0
SMALL
USER_CHARGES
@<TRIPOS>ATOM
1	C1	-0.000000	-0.000003	0.000000	C.2	1	UNNAMED	1.064000
2	O2	1.196877	0.017152	0.000000	O.2	1	UNNAMED	-0.532000
3	O3	-1.196877	-0.017149	0.000000	O.2	1	UNNAMED	-0.532000
@<TRIPOS>BOND
1	2	1	2
2	3	1	2
@<TRIPOS>SUBSTRUCTURE
1	UNNAMED
