@<TRIPOS>MOLECULE
[Cl](=O)[O]_1
3	2	1	0	0
SMALL
USER_CHARGES
@<TRIPOS>ATOM
1	Cl1	0.114890	-0.701007	0.000000	Cl	1	UNNAMED	0.322000
2	O2	1.103936	0.391188	0.000000	O.2	1	UNNAMED	-0.383000
3	O3	-1.218827	0.309819	0.000000	O.3	1	UNNAMED	0.061000
@<TRIPOS>BOND
1	2	1	2
2	3	1	1
@<TRIPOS>SUBSTRUCTURE
1	UNNAMED
