@<TRIPOS>MOLECULE
c1cc(ccc1C(c1ccc(cc1)Cl)C(Cl)(Cl)Cl)Cl_1
28	29	1	0	0
SMALL
USER_CHARGES
@<TRIPOS>ATOM
1	C1	-1.594062	0.976647	-1.004595	C.ar	1	UNNAMED	-0.150000
2	C2	-2.532185	1.977002	-0.737686	C.ar	1	UNNAMED	-0.150000
3	C3	-3.228163	1.964838	0.465055	C.ar	1	UNNAMED	0.177000
4	C4	-2.987005	0.964530	1.401617	C.ar	1	UNNAMED	-0.150000
5	C5	-2.044750	-0.036423	1.135916	C.ar	1	UNNAMED	-0.150000
6	C6	-1.338873	-0.055718	-0.076692	C.ar	1	UNNAMED	-0.143500
7	C7	-0.269857	-1.105731	-0.439478	C.3	1	UNNAMED	0.287000
8	C8	1.142872	-0.512640	-0.298901	C.ar	1	UNNAMED	-0.143500
9	C9	1.578375	0.088989	0.894205	C.ar	1	UNNAMED	-0.150000
10	C10	2.864711	0.626792	0.994905	C.ar	1	UNNAMED	-0.150000
11	C11	3.727607	0.573035	-0.095263	C.ar	1	UNNAMED	0.177000
12	C12	3.315049	-0.013448	-1.288146	C.ar	1	UNNAMED	-0.150000
13	C13	2.029332	-0.551373	-1.390744	C.ar	1	UNNAMED	-0.150000
14	Cl14	5.309171	1.236747	0.030979	Cl	1	UNNAMED	-0.177000
15	C15	-0.408382	-2.567778	0.125168	C.3	1	UNNAMED	0.870000
16	Cl16	-0.007636	-2.741252	1.869953	Cl	1	UNNAMED	-0.290000
17	Cl17	-2.078568	-3.212174	-0.132597	Cl	1	UNNAMED	-0.290000
18	Cl18	0.690624	-3.702573	-0.773318	Cl	1	UNNAMED	-0.290000
19	Cl19	-4.385098	3.192134	0.798949	Cl	1	UNNAMED	-0.177000
20	H3	-1.052091	1.014766	-1.949031	H	1	UNNAMED	0.150000
21	H3	-2.709300	2.760484	-1.469599	H	1	UNNAMED	0.150000
22	H3	-3.527431	0.956723	2.345321	H	1	UNNAMED	0.150000
23	H3	-1.891760	-0.784059	1.907621	H	1	UNNAMED	0.150000
24	H4	-0.428479	-1.237317	-1.523727	H	1	UNNAMED	0.000000
25	H3	0.923460	0.158038	1.760752	H	1	UNNAMED	0.150000
26	H3	3.183734	1.088358	1.926117	H	1	UNNAMED	0.150000
27	H3	3.987662	-0.056013	-2.140858	H	1	UNNAMED	0.150000
28	H3	1.731041	-1.002585	-2.335922	H	1	UNNAMED	0.150000
@<TRIPOS>BOND
1	2	1	2
2	3	2	1
3	4	3	2
4	5	4	1
5	6	5	2
6	6	1	1
7	7	6	1
8	8	7	1
9	9	8	2
10	10	9	1
11	11	10	2
12	12	11	1
13	13	12	2
14	13	8	1
15	14	11	1
16	15	7	1
17	16	15	1
18	17	15	1
19	18	15	1
20	19	3	1
21	1	20	1
22	2	21	1
23	4	22	1
24	5	23	1
25	7	24	1
26	9	25	1
27	10	26	1
28	12	27	1
29	13	28	1
@<TRIPOS>SUBSTRUCTURE
1	UNNAMED
