@<TRIPOS>MOLECULE
C(C(F)(F)F)(Br)(Br)F_1
8	7	1	0	0
SMALL
USER_CHARGES
@<TRIPOS>ATOM
1	C1	-0.551667	0.251513	0.407369	C.3	1	UNNAMED	0.800000
2	C2	0.673463	-0.288164	-0.334471	C.3	1	UNNAMED	1.020000
3	F3	0.473592	-0.371191	-1.673658	F	1	UNNAMED	-0.340000
4	F4	1.764766	0.496892	-0.148817	F	1	UNNAMED	-0.340000
5	F5	1.015349	-1.531366	0.088831	F	1	UNNAMED	-0.340000
6	Br6	-0.979361	2.064963	-0.219256	Br	1	UNNAMED	-0.230000
7	Br7	-2.090894	-0.939667	0.132009	Br	1	UNNAMED	-0.230000
8	F8	-0.305248	0.317021	1.747994	F	1	UNNAMED	-0.340000
@<TRIPOS>BOND
1	2	1	1
2	3	2	1
3	4	2	1
4	5	2	1
5	6	1	1
6	7	1	1
7	8	1	1
@<TRIPOS>SUBSTRUCTURE
1	UNNAMED
