@<TRIPOS>MOLECULE
C(Cl)(Cl)(F)F_1
5	4	1	0	0
SMALL
USER_CHARGES
@<TRIPOS>ATOM
1	C1	-0.009996	-0.072081	-0.000625	C.3	1	UNNAMED	1.260000
2	Cl2	1.571721	0.711411	0.035442	Cl	1	UNNAMED	-0.290000
3	Cl3	-1.318745	1.112741	-0.019620	Cl	1	UNNAMED	-0.290000
4	F4	-0.143145	-0.882491	1.080706	F	1	UNNAMED	-0.340000
5	F5	-0.099834	-0.869580	-1.095903	F	1	UNNAMED	-0.340000
@<TRIPOS>BOND
1	2	1	1
2	3	1	1
3	4	1	1
4	5	1	1
@<TRIPOS>SUBSTRUCTURE
1	UNNAMED
