@<TRIPOS>MOLECULE
CCO_1
9	8	1	0	0
SMALL
USER_CHARGES
@<TRIPOS>ATOM
1	C1	0.852793	-0.117876	-0.275323	C.3	1	UNNAMED	0.000000
2	C2	-0.454817	-0.196452	0.485030	C.3	1	UNNAMED	0.280000
3	O3	-1.524245	0.237301	-0.342738	O.3	1	UNNAMED	-0.680000
4	H2	1.055668	0.910836	-0.590925	H	1	UNNAMED	0.000000
5	H3	0.807185	-0.726471	-1.184408	H	1	UNNAMED	0.000000
6	H4	1.684826	-0.466825	0.342609	H	1	UNNAMED	0.000000
7	H3	-0.426620	0.431817	1.380461	H	1	UNNAMED	0.000000
8	H4	-0.657711	-1.226403	0.792659	H	1	UNNAMED	0.000000
9	H2	-1.337078	1.154072	-0.607366	H	1	UNNAMED	0.400000
@<TRIPOS>BOND
1	2	1	1
2	3	2	1
3	1	4	1
4	1	5	1
5	1	6	1
6	2	7	1
7	2	8	1
8	3	9	1
@<TRIPOS>SUBSTRUCTURE
1	UNNAMED
