@<TRIPOS>MOLECULE
CCc1ccccc1_1
18	18	1	0	0
SMALL
USER_CHARGES
@<TRIPOS>ATOM
1	C1	2.515054	0.217772	-0.250148	C.3	1	UNNAMED	0.000000
2	C2	1.484458	0.411139	0.851684	C.3	1	UNNAMED	0.143500
3	C3	0.087069	0.114493	0.371403	C.ar	1	UNNAMED	-0.143500
4	C4	-0.719986	1.137616	-0.143890	C.ar	1	UNNAMED	-0.150000
5	C5	-2.007584	0.858581	-0.605345	C.ar	1	UNNAMED	-0.150000
6	C6	-2.497753	-0.445354	-0.561380	C.ar	1	UNNAMED	-0.150000
7	C7	-1.700469	-1.471535	-0.057696	C.ar	1	UNNAMED	-0.150000
8	C8	-0.412896	-1.194202	0.404551	C.ar	1	UNNAMED	-0.150000
9	H2	2.313383	0.875517	-1.102430	H	1	UNNAMED	0.000000
10	H3	2.517250	-0.814581	-0.616177	H	1	UNNAMED	0.000000
11	H4	3.517509	0.446217	0.125449	H	1	UNNAMED	0.000000
12	H3	1.725339	-0.236403	1.703641	H	1	UNNAMED	0.000000
13	H4	1.535275	1.439840	1.228850	H	1	UNNAMED	0.000000
14	H3	-0.349310	2.159013	-0.189434	H	1	UNNAMED	0.150000
15	H3	-2.627217	1.658779	-1.001079	H	1	UNNAMED	0.150000
16	H3	-3.499637	-0.662026	-0.921870	H	1	UNNAMED	0.150000
17	H3	-2.080407	-2.489190	-0.026483	H	1	UNNAMED	0.150000
18	H3	0.199921	-2.005676	0.790354	H	1	UNNAMED	0.150000
@<TRIPOS>BOND
1	2	1	1
2	3	2	1
3	4	3	2
4	5	4	1
5	6	5	2
6	7	6	1
7	8	7	2
8	8	3	1
9	1	9	1
10	1	10	1
11	1	11	1
12	2	12	1
13	2	13	1
14	4	14	1
15	5	15	1
16	6	16	1
17	7	17	1
18	8	18	1
@<TRIPOS>SUBSTRUCTURE
1	UNNAMED
