@<TRIPOS>MOLECULE
CCc1ccccc1_1
18	18	1	0	0
SMALL
USER_CHARGES
@<TRIPOS>ATOM
1	C1	2.507478	-0.156188	-0.367424	C.3	1	UNNAMED	0.000000
2	C2	1.567341	0.198174	0.774719	C.3	1	UNNAMED	0.143500
3	C3	0.120488	0.104158	0.362558	C.ar	1	UNNAMED	-0.143500
4	C4	-0.559888	1.234434	-0.110032	C.ar	1	UNNAMED	-0.150000
5	C5	-1.895556	1.142382	-0.505619	C.ar	1	UNNAMED	-0.150000
6	C6	-2.561192	-0.080236	-0.438271	C.ar	1	UNNAMED	-0.150000
7	C7	-1.891645	-1.212211	0.023025	C.ar	1	UNNAMED	-0.150000
8	C8	-0.556265	-1.121767	0.419750	C.ar	1	UNNAMED	-0.150000
9	H2	2.342588	-1.181696	-0.715114	H	1	UNNAMED	0.000000
10	H3	3.548789	-0.073495	-0.040100	H	1	UNNAMED	0.000000
11	H4	2.365434	0.514936	-1.221284	H	1	UNNAMED	0.000000
12	H3	1.749995	-0.468035	1.626697	H	1	UNNAMED	0.000000
13	H4	1.785796	1.212135	1.131482	H	1	UNNAMED	0.000000
14	H3	-0.052762	2.194546	-0.172379	H	1	UNNAMED	0.150000
15	H3	-2.416177	2.024973	-0.867812	H	1	UNNAMED	0.150000
16	H3	-3.600503	-0.151440	-0.747332	H	1	UNNAMED	0.150000
17	H3	-2.408707	-2.166726	0.072891	H	1	UNNAMED	0.150000
18	H3	-0.045214	-2.013945	0.774248	H	1	UNNAMED	0.150000
@<TRIPOS>BOND
1	2	1	1
2	3	2	1
3	4	3	2
4	5	4	1
5	6	5	2
6	7	6	1
7	8	7	2
8	8	3	1
9	1	9	1
10	1	10	1
11	1	11	1
12	2	12	1
13	2	13	1
14	4	14	1
15	5	15	1
16	6	16	1
17	7	17	1
18	8	18	1
@<TRIPOS>SUBSTRUCTURE
1	UNNAMED
