@<TRIPOS>MOLECULE
C=O_1
4	3	1	0	0
SMALL
USER_CHARGES
@<TRIPOS>ATOM
1	C1	0.012267	-0.001131	-0.000142	C.2	1	UNNAMED	0.450000
2	O2	-1.207127	0.111160	0.013111	O.2	1	UNNAMED	-0.570000
3	H2	0.511923	-0.982933	-0.012393	H	1	UNNAMED	0.060000
4	H3	0.682937	0.872905	-0.000576	H	1	UNNAMED	0.060000
@<TRIPOS>BOND
1	2	1	2
2	1	3	1
3	1	4	1
@<TRIPOS>SUBSTRUCTURE
1	UNNAMED
