@<TRIPOS>MOLECULE
C=O_1
4	3	1	0	0
SMALL
USER_CHARGES
@<TRIPOS>ATOM
1	C1	0.012086	0.002406	0.000133	C.2	1	UNNAMED	0.450000
2	O2	-1.188898	-0.236660	-0.013913	O.2	1	UNNAMED	-0.570000
3	H2	0.770265	-0.796809	0.012706	H	1	UNNAMED	0.060000
4	H3	0.406547	1.031063	0.001074	H	1	UNNAMED	0.060000
@<TRIPOS>BOND
1	2	1	2
2	1	3	1
3	1	4	1
@<TRIPOS>SUBSTRUCTURE
1	UNNAMED
