@<TRIPOS>MOLECULE
C(=O)CO_1
8	7	1	0	0
SMALL
USER_CHARGES
@<TRIPOS>ATOM
1	C1	1.141034	-0.031501	0.135585	C.2	1	UNNAMED	0.449000
2	O2	1.952054	0.870128	0.333503	O.2	1	UNNAMED	-0.570000
3	C3	-0.321344	0.218937	-0.149891	C.3	1	UNNAMED	0.341000
4	O4	-1.124535	-0.793136	0.431063	O.3	1	UNNAMED	-0.680000
5	H3	1.479811	-1.074314	0.009778	H	1	UNNAMED	0.060000
6	H3	-0.609900	1.191725	0.258301	H	1	UNNAMED	0.000000
7	H4	-0.468899	0.200722	-1.232152	H	1	UNNAMED	0.000000
8	H2	-2.048221	-0.582562	0.213812	H	1	UNNAMED	0.400000
@<TRIPOS>BOND
1	2	1	2
2	3	1	1
3	4	3	1
4	1	5	1
5	3	6	1
6	3	7	1
7	4	8	1
@<TRIPOS>SUBSTRUCTURE
1	UNNAMED
