@<TRIPOS>MOLECULE
OO_1
4	3	1	0	0
SMALL
USER_CHARGES
@<TRIPOS>ATOM
1	O1	0.707311	-0.516130	0.000000	O.3	1	UNNAMED	-0.400000
2	O2	-0.756739	-0.440492	0.000000	O.3	1	UNNAMED	-0.400000
3	H2	0.930647	0.431506	0.000000	H	1	UNNAMED	0.400000
4	H2	-0.881218	0.525116	0.000000	H	1	UNNAMED	0.400000
@<TRIPOS>BOND
1	2	1	1
2	1	3	1
3	2	4	1
@<TRIPOS>SUBSTRUCTURE
1	UNNAMED
