@<TRIPOS>MOLECULE
C_1
5	4	1	0	0
SMALL
USER_CHARGES
@<TRIPOS>ATOM
1	C1	0.000010	0.000006	0.000023	C.3	1	UNNAMED	0.000000
2	H1	-0.008019	0.166750	-1.079326	H	1	UNNAMED	0.000000
3	H2	-0.778564	-0.719391	0.263011	H	1	UNNAMED	0.000000
4	H3	-0.187618	0.944411	0.515629	H	1	UNNAMED	0.000000
5	H4	0.974193	-0.391776	0.300662	H	1	UNNAMED	0.000000
@<TRIPOS>BOND
1	1	2	1
2	1	3	1
3	1	4	1
4	1	5	1
@<TRIPOS>SUBSTRUCTURE
1	UNNAMED
