@<TRIPOS>MOLECULE
CBr_1
5	4	1	0	0
SMALL
USER_CHARGES
@<TRIPOS>ATOM
1	C1	-0.183864	-0.003069	-0.000034	C.3	1	UNNAMED	0.230000
2	Br2	1.750784	0.029123	0.000230	Br	1	UNNAMED	-0.230000
3	H2	-0.532585	0.604525	0.836274	H	1	UNNAMED	0.000000
4	H3	-0.529143	0.408922	-0.949385	H	1	UNNAMED	0.000000
5	H4	-0.505193	-1.039500	0.112915	H	1	UNNAMED	0.000000
@<TRIPOS>BOND
1	2	1	1
2	1	3	1
3	1	4	1
4	1	5	1
@<TRIPOS>SUBSTRUCTURE
1	UNNAMED
