@<TRIPOS>MOLECULE
CC(Cl)(Cl)Cl_1
8	7	1	0	0
SMALL
USER_CHARGES
@<TRIPOS>ATOM
1	C1	-0.675679	0.198200	-0.452433	C.3	1	UNNAMED	0.000000
2	C2	0.553585	-0.162355	0.370748	C.3	1	UNNAMED	0.870000
3	Cl3	0.049730	-0.928662	1.902399	Cl	1	UNNAMED	-0.290000
4	Cl4	1.579899	-1.299919	-0.545642	Cl	1	UNNAMED	-0.290000
5	Cl5	1.490709	1.313416	0.732665	Cl	1	UNNAMED	-0.290000
6	H2	-1.271811	-0.690025	-0.692983	H	1	UNNAMED	0.000000
7	H3	-0.397972	0.673735	-1.400503	H	1	UNNAMED	0.000000
8	H4	-1.328461	0.895609	0.085749	H	1	UNNAMED	0.000000
@<TRIPOS>BOND
1	2	1	1
2	3	2	1
3	4	2	1
4	5	2	1
5	1	6	1
6	1	7	1
7	1	8	1
@<TRIPOS>SUBSTRUCTURE
1	UNNAMED
