@<TRIPOS>MOLECULE
C_1
5	4	1	0	0
SMALL
USER_CHARGES
@<TRIPOS>ATOM
1	C1	0.000024	0.000005	-0.000014	C.3	1	UNNAMED	0.000000
2	H1	-0.819896	-0.476622	0.541630	H	1	UNNAMED	0.000000
3	H2	-0.366123	0.902729	-0.493987	H	1	UNNAMED	0.000000
4	H3	0.391988	-0.691575	-0.749026	H	1	UNNAMED	0.000000
5	H4	0.794007	0.265463	0.701398	H	1	UNNAMED	0.000000
@<TRIPOS>BOND
1	1	2	1
2	1	3	1
3	1	4	1
4	1	5	1
@<TRIPOS>SUBSTRUCTURE
1	UNNAMED
