@<TRIPOS>MOLECULE
CBr_1
5	4	1	0	0
SMALL
USER_CHARGES
@<TRIPOS>ATOM
1	C1	-0.183268	0.001801	-0.015033	C.3	1	UNNAMED	0.230000
2	Br2	1.745088	-0.016940	0.143022	Br	1	UNNAMED	-0.230000
3	H2	-0.598215	0.321897	0.941826	H	1	UNNAMED	0.000000
4	H3	-0.451177	0.701795	-0.807775	H	1	UNNAMED	0.000000
5	H4	-0.512428	-1.008553	-0.262040	H	1	UNNAMED	0.000000
@<TRIPOS>BOND
1	2	1	1
2	1	3	1
3	1	4	1
4	1	5	1
@<TRIPOS>SUBSTRUCTURE
1	UNNAMED
