@<TRIPOS>MOLECULE
CC(C)(C)OC_1
18	17	1	0	0
SMALL
USER_CHARGES
@<TRIPOS>ATOM
1	C1	0.102870	1.166669	0.962451	C.3	1	UNNAMED	0.000000
2	C2	-0.269627	0.161214	-0.133835	C.3	1	UNNAMED	0.280000
3	C3	-1.275189	0.821689	-1.088006	C.3	1	UNNAMED	0.000000
4	C4	-0.912962	-1.092148	0.471480	C.3	1	UNNAMED	0.000000
5	O5	0.864389	-0.163940	-0.952053	O.3	1	UNNAMED	-0.560000
6	C6	1.942837	-0.835780	-0.319619	C.3	1	UNNAMED	0.280000
7	H2	0.651565	2.016718	0.541579	H	1	UNNAMED	0.000000
8	H3	0.751130	0.714568	1.720360	H	1	UNNAMED	0.000000
9	H4	-0.786906	1.545747	1.476612	H	1	UNNAMED	0.000000
10	H2	-1.544468	0.139314	-1.902661	H	1	UNNAMED	0.000000
11	H3	-2.192628	1.120575	-0.570312	H	1	UNNAMED	0.000000
12	H4	-0.839212	1.710115	-1.559754	H	1	UNNAMED	0.000000
13	H2	-1.086948	-1.851978	-0.298407	H	1	UNNAMED	0.000000
14	H3	-0.267600	-1.549012	1.229162	H	1	UNNAMED	0.000000
15	H4	-1.868511	-0.857969	0.952881	H	1	UNNAMED	0.000000
16	H2	2.356792	-0.247033	0.502280	H	1	UNNAMED	0.000000
17	H3	1.641026	-1.825785	0.030895	H	1	UNNAMED	0.000000
18	H4	2.733442	-0.972963	-1.063054	H	1	UNNAMED	0.000000
@<TRIPOS>BOND
1	2	1	1
2	3	2	1
3	4	2	1
4	5	2	1
5	6	5	1
6	1	7	1
7	1	8	1
8	1	9	1
9	3	10	1
10	3	11	1
11	3	12	1
12	4	13	1
13	4	14	1
14	4	15	1
15	6	16	1
16	6	17	1
17	6	18	1
@<TRIPOS>SUBSTRUCTURE
1	UNNAMED
