@<TRIPOS>MOLECULE
c1ccc2ccccc2c1_1
18	19	1	0	0
SMALL
USER_CHARGES
@<TRIPOS>ATOM
1	C1	-2.528628	0.101567	-0.079636	C.ar	1	UNNAMED	-0.150000
2	C2	-2.212735	-1.133506	0.479051	C.ar	1	UNNAMED	-0.150000
3	C3	-0.876938	-1.496397	0.659912	C.ar	1	UNNAMED	-0.150000
4	C4	0.160460	-0.627439	0.283808	C.ar	1	UNNAMED	0.000000
5	C5	1.509479	-0.976826	0.459302	C.ar	1	UNNAMED	-0.150000
6	C6	2.528608	-0.101393	0.080091	C.ar	1	UNNAMED	-0.150000
7	C7	2.212796	1.133409	-0.479218	C.ar	1	UNNAMED	-0.150000
8	C8	0.876992	1.496180	-0.660525	C.ar	1	UNNAMED	-0.150000
9	C9	-0.160481	0.627376	-0.284167	C.ar	1	UNNAMED	0.000000
10	C10	-1.509543	0.976925	-0.459162	C.ar	1	UNNAMED	-0.150000
11	H3	-3.568222	0.385247	-0.220749	H	1	UNNAMED	0.150000
12	H3	-3.005240	-1.815865	0.774808	H	1	UNNAMED	0.150000
13	H3	-0.649900	-2.465559	1.098068	H	1	UNNAMED	0.150000
14	H3	1.775924	-1.937235	0.894515	H	1	UNNAMED	0.150000
15	H3	3.568171	-0.384843	0.221958	H	1	UNNAMED	0.150000
16	H3	3.005356	1.815716	-0.774981	H	1	UNNAMED	0.150000
17	H3	0.650007	2.465146	-1.099112	H	1	UNNAMED	0.150000
18	H3	-1.776105	1.937494	-0.893963	H	1	UNNAMED	0.150000
@<TRIPOS>BOND
1	2	1	1
2	3	2	2
3	4	3	1
4	5	4	2
5	6	5	1
6	7	6	2
7	8	7	1
8	9	8	2
9	9	4	1
10	10	9	1
11	10	1	2
12	1	11	1
13	2	12	1
14	3	13	1
15	5	14	1
16	6	15	1
17	7	16	1
18	8	17	1
19	10	18	1
@<TRIPOS>SUBSTRUCTURE
1	UNNAMED
