@<TRIPOS>MOLECULE
N_1
4	3	1	0	0
SMALL
USER_CHARGES
@<TRIPOS>ATOM
1	N1	0.002065	-0.010139	-0.295376	N.3	1	UNNAMED	-1.080000
2	H1	-0.100049	0.937281	0.065619	H	1	UNNAMED	0.360000
3	H2	0.858207	-0.377365	0.117551	H	1	UNNAMED	0.360000
4	H3	-0.760223	-0.549777	0.112206	H	1	UNNAMED	0.360000
@<TRIPOS>BOND
1	1	2	1
2	1	3	1
3	1	4	1
@<TRIPOS>SUBSTRUCTURE
1	UNNAMED
