@<TRIPOS>MOLECULE
CCCc1ccccc1_1
21	21	1	0	0
SMALL
USER_CHARGES
@<TRIPOS>ATOM
1	C1	2.509546	0.119741	0.644771	C.3	1	UNNAMED	0.000000
2	C2	2.062153	-0.025621	-0.803088	C.3	1	UNNAMED	0.000000
3	C3	0.831961	-0.923411	-0.967535	C.3	1	UNNAMED	0.143500
4	C4	-0.427738	-0.356151	-0.359954	C.ar	1	UNNAMED	-0.143500
5	C5	-0.983309	-0.928038	0.792763	C.ar	1	UNNAMED	-0.150000
6	C6	-2.149886	-0.403070	1.352786	C.ar	1	UNNAMED	-0.150000
7	C7	-2.771792	0.697548	0.767093	C.ar	1	UNNAMED	-0.150000
8	C8	-2.227752	1.275010	-0.378629	C.ar	1	UNNAMED	-0.150000
9	C9	-1.061903	0.750890	-0.940045	C.ar	1	UNNAMED	-0.150000
10	H2	3.440626	0.693506	0.693945	H	1	UNNAMED	0.000000
11	H3	2.691062	-0.858802	1.100966	H	1	UNNAMED	0.000000
12	H4	1.761157	0.648360	1.243044	H	1	UNNAMED	0.000000
13	H3	2.888114	-0.462399	-1.377904	H	1	UNNAMED	0.000000
14	H4	1.874694	0.968676	-1.225153	H	1	UNNAMED	0.000000
15	H3	1.041207	-1.914684	-0.545908	H	1	UNNAMED	0.000000
16	H4	0.649095	-1.088892	-2.037382	H	1	UNNAMED	0.000000
17	H3	-0.510527	-1.786957	1.263709	H	1	UNNAMED	0.150000
18	H3	-2.573005	-0.854261	2.246374	H	1	UNNAMED	0.150000
19	H3	-3.680265	1.104584	1.202596	H	1	UNNAMED	0.150000
20	H3	-2.711868	2.133495	-0.836227	H	1	UNNAMED	0.150000
21	H3	-0.651566	1.210477	-1.836222	H	1	UNNAMED	0.150000
@<TRIPOS>BOND
1	2	1	1
2	3	2	1
3	4	3	1
4	5	4	2
5	6	5	1
6	7	6	2
7	8	7	1
8	9	8	2
9	9	4	1
10	1	10	1
11	1	11	1
12	1	12	1
13	2	13	1
14	2	14	1
15	3	15	1
16	3	16	1
17	5	17	1
18	6	18	1
19	7	19	1
20	8	20	1
21	9	21	1
@<TRIPOS>SUBSTRUCTURE
1	UNNAMED
