@<TRIPOS>MOLECULE
[O-][O+]=O_1
3	2	1	0	0
SMALL
USER_CHARGES
@<TRIPOS>ATOM
1	O1	1.121968	-0.230468	0.000000	O.3	1	UNNAMED	0.314000
2	O2	-0.010659	0.507813	0.000000	O.2	1	UNNAMED	0.372000
3	O3	-1.111309	-0.277345	0.000000	O.2	1	UNNAMED	0.314000
@<TRIPOS>BOND
1	2	1	1
2	3	2	2
@<TRIPOS>SUBSTRUCTURE
1	UNNAMED
