@<TRIPOS>MOLECULE
c1ccc(cc1)O_1
13	13	1	0	0
SMALL
USER_CHARGES
@<TRIPOS>ATOM
1	C1	1.584302	0.463722	-0.075676	C.ar	1	UNNAMED	-0.150000
2	C2	1.304423	-0.902426	-0.125372	C.ar	1	UNNAMED	-0.150000
3	C3	-0.016829	-1.345170	-0.064395	C.ar	1	UNNAMED	-0.150000
4	C4	-1.048423	-0.419320	0.045666	C.ar	1	UNNAMED	0.082500
5	C5	-0.780194	0.945807	0.096464	C.ar	1	UNNAMED	-0.150000
6	C6	0.542970	1.386886	0.035217	C.ar	1	UNNAMED	-0.150000
7	O7	-2.325472	-0.894518	0.101236	O.3	1	UNNAMED	-0.532500
8	H3	2.614018	0.808631	-0.123912	H	1	UNNAMED	0.150000
9	H3	2.113935	-1.622147	-0.212154	H	1	UNNAMED	0.150000
10	H3	-0.241357	-2.407040	-0.103130	H	1	UNNAMED	0.150000
11	H3	-1.579575	1.674412	0.182829	H	1	UNNAMED	0.150000
12	H3	0.764023	2.450402	0.073392	H	1	UNNAMED	0.150000
13	H2	-2.931820	-0.139240	0.169835	H	1	UNNAMED	0.450000
@<TRIPOS>BOND
1	2	1	2
2	3	2	1
3	4	3	2
4	5	4	1
5	6	5	2
6	6	1	1
7	7	4	1
8	1	8	1
9	2	9	1
10	3	10	1
11	5	11	1
12	6	12	1
13	7	13	1
@<TRIPOS>SUBSTRUCTURE
1	UNNAMED
