@<TRIPOS>MOLECULE
C=Cc1ccccc1_1
16	16	1	0	0
SMALL
USER_CHARGES
@<TRIPOS>ATOM
1	C1	2.794354	0.329402	0.448175	C.2	1	UNNAMED	-0.300000
2	C2	1.778895	0.646234	-0.365468	C.2	1	UNNAMED	-0.178400
3	C3	0.395813	0.184155	-0.186695	C.ar	1	UNNAMED	0.028400
4	C4	-0.393153	-0.047269	-1.321366	C.ar	1	UNNAMED	-0.150000
5	C5	-1.734244	-0.419339	-1.194109	C.ar	1	UNNAMED	-0.150000
6	C6	-2.304045	-0.553102	0.070160	C.ar	1	UNNAMED	-0.150000
7	C7	-1.534885	-0.311524	1.206433	C.ar	1	UNNAMED	-0.150000
8	C8	-0.193178	0.059054	1.078674	C.ar	1	UNNAMED	-0.150000
9	H2	2.669403	-0.314288	1.312623	H	1	UNNAMED	0.150000
10	H3	3.795245	0.697529	0.245638	H	1	UNNAMED	0.150000
11	H3	1.968687	1.268824	-1.236781	H	1	UNNAMED	0.150000
12	H3	0.033794	0.048396	-2.317108	H	1	UNNAMED	0.150000
13	H3	-2.332039	-0.603368	-2.083018	H	1	UNNAMED	0.150000
14	H3	-3.347384	-0.840525	0.169630	H	1	UNNAMED	0.150000
15	H3	-1.978725	-0.405450	2.194078	H	1	UNNAMED	0.150000
16	H3	0.381462	0.261271	1.979134	H	1	UNNAMED	0.150000
@<TRIPOS>BOND
1	2	1	2
2	3	2	1
3	4	3	1
4	5	4	2
5	6	5	1
6	7	6	2
7	8	7	1
8	8	3	2
9	1	9	1
10	1	10	1
11	2	11	1
12	4	12	1
13	5	13	1
14	6	14	1
15	7	15	1
16	8	16	1
@<TRIPOS>SUBSTRUCTURE
1	UNNAMED
