@<TRIPOS>MOLECULE
OS(=O)(=O)O_1
7	6	1	0	0
SMALL
USER_CHARGES
@<TRIPOS>ATOM
1	O1	-0.058070	1.118726	-0.773500	O.3	1	UNNAMED	-0.683700
2	S2	0.409681	-0.195705	0.018277	S.o2	1	UNNAMED	1.667400
3	O3	0.714173	-1.222161	-0.945730	O.2	1	UNNAMED	-0.650000
4	O4	1.327826	0.247293	1.036287	O.2	1	UNNAMED	-0.650000
5	O5	-0.960556	-0.633043	0.728676	O.3	1	UNNAMED	-0.683700
6	H2	0.020147	1.872879	-0.153067	H	1	UNNAMED	0.500000
7	H2	-1.453201	-1.187989	0.089058	H	1	UNNAMED	0.500000
@<TRIPOS>BOND
1	2	1	1
2	3	2	2
3	4	2	2
4	5	2	1
5	1	6	1
6	5	7	1
@<TRIPOS>SUBSTRUCTURE
1	UNNAMED
