@<TRIPOS>MOLECULE
O=S=O_1
3	2	1	0	0
SMALL
USER_CHARGES
@<TRIPOS>ATOM
1	O1	1.238182	-0.292974	0.000000	O.2	1	UNNAMED	-0.500000
2	S2	0.008330	0.548194	0.000000	S.o2	1	UNNAMED	1.000000
3	O3	-1.246511	-0.255220	0.000000	O.2	1	UNNAMED	-0.500000
@<TRIPOS>BOND
1	2	1	2
2	3	2	2
@<TRIPOS>SUBSTRUCTURE
1	UNNAMED
