@<TRIPOS>MOLECULE
CC(C)C1(CC=C(C)CC1)O_1
29	29	1	0	0
SMALL
USER_CHARGES
@<TRIPOS>ATOM
1	C1	2.917197	0.492444	0.442358	C.3	1	UNNAMED	0.000000
2	C2	1.709410	0.099346	-0.430823	C.3	1	UNNAMED	0.000000
3	C3	1.431564	-1.390146	-0.222338	C.3	1	UNNAMED	0.000000
4	C4	0.489700	1.062826	-0.233991	C.3	1	UNNAMED	0.280000
5	C5	-0.135219	1.037285	1.180633	C.3	1	UNNAMED	0.138200
6	C6	-1.246950	0.048644	1.374367	C.2	1	UNNAMED	-0.288200
7	C7	-1.897134	-0.559088	0.367587	C.2	1	UNNAMED	-0.276400
8	C8	-2.988306	-1.560307	0.620774	C.3	1	UNNAMED	0.138200
9	C9	-1.583842	-0.274333	-1.077363	C.3	1	UNNAMED	0.138200
10	C10	-0.618245	0.891276	-1.297077	C.3	1	UNNAMED	0.000000
11	O11	0.997775	2.404451	-0.428272	O.3	1	UNNAMED	-0.680000
12	H2	2.713903	0.346075	1.506974	H	1	UNNAMED	0.000000
13	H3	3.786591	-0.125561	0.191322	H	1	UNNAMED	0.000000
14	H4	3.209181	1.535170	0.286695	H	1	UNNAMED	0.000000
15	H4	2.050878	0.221591	-1.469282	H	1	UNNAMED	0.000000
16	H2	1.028395	-1.595795	0.772906	H	1	UNNAMED	0.000000
17	H3	0.746426	-1.782026	-0.975030	H	1	UNNAMED	0.000000
18	H4	2.355940	-1.970918	-0.323652	H	1	UNNAMED	0.000000
19	H3	0.633300	0.850273	1.937390	H	1	UNNAMED	0.000000
20	H4	-0.534393	2.031210	1.426403	H	1	UNNAMED	0.000000
21	H3	-1.519812	-0.164729	2.405551	H	1	UNNAMED	0.150000
22	H2	-3.922016	-1.231822	0.154451	H	1	UNNAMED	0.000000
23	H3	-2.713810	-2.534873	0.203319	H	1	UNNAMED	0.000000
24	H4	-3.182190	-1.697250	1.688984	H	1	UNNAMED	0.000000
25	H3	-2.517369	-0.044020	-1.607769	H	1	UNNAMED	0.000000
26	H4	-1.191620	-1.182047	-1.547582	H	1	UNNAMED	0.000000
27	H3	-1.213581	1.816987	-1.321837	H	1	UNNAMED	0.000000
28	H4	-0.177201	0.823073	-2.299470	H	1	UNNAMED	0.000000
29	H2	1.371427	2.452262	-1.325227	H	1	UNNAMED	0.400000
@<TRIPOS>BOND
1	2	1	1
2	3	2	1
3	4	2	1
4	5	4	1
5	6	5	1
6	7	6	2
7	8	7	1
8	9	7	1
9	10	9	1
10	10	4	1
11	11	4	1
12	1	12	1
13	1	13	1
14	1	14	1
15	2	15	1
16	3	16	1
17	3	17	1
18	3	18	1
19	5	19	1
20	5	20	1
21	6	21	1
22	8	22	1
23	8	23	1
24	8	24	1
25	9	25	1
26	9	26	1
27	10	27	1
28	10	28	1
29	11	29	1
@<TRIPOS>SUBSTRUCTURE
1	UNNAMED
