@<TRIPOS>MOLECULE
CC(C)(C)O_1
15	14	1	0	0
SMALL
USER_CHARGES
@<TRIPOS>ATOM
1	C1	-1.377545	-0.312807	0.296311	C.3	1	UNNAMED	0.000000
2	C2	0.005941	0.240762	-0.042250	C.3	1	UNNAMED	0.280000
3	C3	0.876347	0.315597	1.210469	C.3	1	UNNAMED	0.000000
4	C4	0.683652	-0.607234	-1.117926	C.3	1	UNNAMED	0.000000
5	O5	-0.145587	1.570716	-0.539926	O.3	1	UNNAMED	-0.680000
6	H2	-2.022109	-0.323467	-0.589923	H	1	UNNAMED	0.000000
7	H3	-1.318422	-1.331429	0.693159	H	1	UNNAMED	0.000000
8	H4	-1.879884	0.320393	1.036275	H	1	UNNAMED	0.000000
9	H2	1.853786	0.755076	0.980664	H	1	UNNAMED	0.000000
10	H3	1.035941	-0.673622	1.651756	H	1	UNNAMED	0.000000
11	H4	0.417020	0.962927	1.966272	H	1	UNNAMED	0.000000
12	H2	1.651430	-0.177651	-1.400592	H	1	UNNAMED	0.000000
13	H3	0.845475	-1.635442	-0.778294	H	1	UNNAMED	0.000000
14	H4	0.079273	-0.635965	-2.031685	H	1	UNNAMED	0.000000
15	H2	-0.705318	1.532148	-1.334311	H	1	UNNAMED	0.400000
@<TRIPOS>BOND
1	2	1	1
2	3	2	1
3	4	2	1
4	5	2	1
5	1	6	1
6	1	7	1
7	1	8	1
8	3	9	1
9	3	10	1
10	3	11	1
11	4	12	1
12	4	13	1
13	4	14	1
14	5	15	1
@<TRIPOS>SUBSTRUCTURE
1	UNNAMED
