@<TRIPOS>MOLECULE
C(C(Cl)Cl)(Cl)Cl_1
8	7	1	0	0
SMALL
USER_CHARGES
@<TRIPOS>ATOM
1	C1	0.583082	-0.485640	-0.160290	C.3	1	UNNAMED	0.580000
2	C2	-0.587770	0.377403	0.337053	C.3	1	UNNAMED	0.580000
3	Cl3	-1.626676	1.014826	-0.971792	Cl	1	UNNAMED	-0.290000
4	Cl4	-0.015115	1.744498	1.343957	Cl	1	UNNAMED	-0.290000
5	Cl5	1.687518	0.365264	-1.280476	Cl	1	UNNAMED	-0.290000
6	Cl6	0.003990	-1.989452	-0.943874	Cl	1	UNNAMED	-0.290000
7	H4	1.192200	-0.808364	0.689748	H	1	UNNAMED	0.000000
8	H4	-1.237229	-0.218535	0.985673	H	1	UNNAMED	0.000000
@<TRIPOS>BOND
1	2	1	1
2	3	2	1
3	4	2	1
4	5	1	1
5	6	1	1
6	1	7	1
7	2	8	1
@<TRIPOS>SUBSTRUCTURE
1	UNNAMED
