@<TRIPOS>MOLECULE
CCCCCCCCCCCCCC_1
44	43	1	0	0
SMALL
USER_CHARGES
@<TRIPOS>ATOM
1	C1	2.548331	-0.753327	1.203175	C.3	1	UNNAMED	0.000000
2	C2	2.140431	-2.216911	1.294816	C.3	1	UNNAMED	0.000000
3	C3	2.021452	-2.900186	-0.071153	C.3	1	UNNAMED	0.000000
4	C4	0.831356	-2.447302	-0.924624	C.3	1	UNNAMED	0.000000
5	C5	-0.520113	-2.952834	-0.401481	C.3	1	UNNAMED	0.000000
6	C6	-1.686801	-2.612002	-1.340206	C.3	1	UNNAMED	0.000000
7	C7	-2.052076	-1.125460	-1.373189	C.3	1	UNNAMED	0.000000
8	C8	-2.869533	-0.668534	-0.155528	C.3	1	UNNAMED	0.000000
9	C9	-2.525694	0.768372	0.258510	C.3	1	UNNAMED	0.000000
10	C10	-1.264999	0.796579	1.129782	C.3	1	UNNAMED	0.000000
11	C11	-0.618298	2.176374	1.271042	C.3	1	UNNAMED	0.000000
12	C12	0.053186	2.638429	-0.025567	C.3	1	UNNAMED	0.000000
13	C13	0.942899	3.859013	0.204776	C.3	1	UNNAMED	0.000000
14	C14	1.593371	4.323579	-1.089671	C.3	1	UNNAMED	0.000000
15	H2	2.678563	-0.335703	2.206778	H	1	UNNAMED	0.000000
16	H3	1.794642	-0.153485	0.689138	H	1	UNNAMED	0.000000
17	H4	3.496558	-0.645679	0.667350	H	1	UNNAMED	0.000000
18	H3	1.205169	-2.308303	1.856225	H	1	UNNAMED	0.000000
19	H4	2.906680	-2.747281	1.874636	H	1	UNNAMED	0.000000
20	H3	1.958221	-3.984233	0.083911	H	1	UNNAMED	0.000000
21	H4	2.944416	-2.721962	-0.638767	H	1	UNNAMED	0.000000
22	H3	0.977886	-2.841487	-1.938423	H	1	UNNAMED	0.000000
23	H4	0.834557	-1.359113	-1.016104	H	1	UNNAMED	0.000000
24	H3	-0.470718	-4.045628	-0.307301	H	1	UNNAMED	0.000000
25	H4	-0.714928	-2.558432	0.599765	H	1	UNNAMED	0.000000
26	H3	-1.423931	-2.934066	-2.355386	H	1	UNNAMED	0.000000
27	H4	-2.566024	-3.196495	-1.045846	H	1	UNNAMED	0.000000
28	H3	-1.149157	-0.520691	-1.494256	H	1	UNNAMED	0.000000
29	H4	-2.657464	-0.939722	-2.270511	H	1	UNNAMED	0.000000
30	H3	-3.932998	-0.719591	-0.421153	H	1	UNNAMED	0.000000
31	H4	-2.732395	-1.338738	0.700032	H	1	UNNAMED	0.000000
32	H3	-3.358986	1.186787	0.835311	H	1	UNNAMED	0.000000
33	H4	-2.420081	1.389308	-0.634941	H	1	UNNAMED	0.000000
34	H3	-1.532839	0.429141	2.129449	H	1	UNNAMED	0.000000
35	H4	-0.518229	0.100517	0.737497	H	1	UNNAMED	0.000000
36	H3	-1.359638	2.914080	1.598974	H	1	UNNAMED	0.000000
37	H4	0.136919	2.112329	2.065198	H	1	UNNAMED	0.000000
38	H3	0.661094	1.824579	-0.438854	H	1	UNNAMED	0.000000
39	H4	-0.712996	2.880915	-0.771799	H	1	UNNAMED	0.000000
40	H3	0.348243	4.674097	0.631456	H	1	UNNAMED	0.000000
41	H4	1.730379	3.614452	0.928525	H	1	UNNAMED	0.000000
42	H2	2.244035	3.546644	-1.503936	H	1	UNNAMED	0.000000
43	H3	0.840556	4.576935	-1.843595	H	1	UNNAMED	0.000000
44	H4	2.198957	5.215033	-0.904058	H	1	UNNAMED	0.000000
@<TRIPOS>BOND
1	2	1	1
2	3	2	1
3	4	3	1
4	5	4	1
5	6	5	1
6	7	6	1
7	8	7	1
8	9	8	1
9	10	9	1
10	11	10	1
11	12	11	1
12	13	12	1
13	14	13	1
14	1	15	1
15	1	16	1
16	1	17	1
17	2	18	1
18	2	19	1
19	3	20	1
20	3	21	1
21	4	22	1
22	4	23	1
23	5	24	1
24	5	25	1
25	6	26	1
26	6	27	1
27	7	28	1
28	7	29	1
29	8	30	1
30	8	31	1
31	9	32	1
32	9	33	1
33	10	34	1
34	10	35	1
35	11	36	1
36	11	37	1
37	12	38	1
38	12	39	1
39	13	40	1
40	13	41	1
41	14	42	1
42	14	43	1
43	14	44	1
@<TRIPOS>SUBSTRUCTURE
1	UNNAMED
