@<TRIPOS>MOLECULE
C(=C(Cl)Cl)(Cl)Cl_1
6	5	1	0	0
SMALL
USER_CHARGES
@<TRIPOS>ATOM
1	C1	0.010288	0.671860	0.015884	C.2	1	UNNAMED	0.280000
2	C2	-0.010480	-0.671852	-0.015844	C.2	1	UNNAMED	0.280000
3	Cl3	1.436188	-1.627922	-0.133091	Cl	1	UNNAMED	-0.140000
4	Cl4	-1.485726	-1.587833	0.057149	Cl	1	UNNAMED	-0.140000
5	Cl5	1.485725	1.587490	-0.058760	Cl	1	UNNAMED	-0.140000
6	Cl6	-1.435995	1.628256	0.134662	Cl	1	UNNAMED	-0.140000
@<TRIPOS>BOND
1	2	1	2
2	3	2	1
3	4	2	1
4	5	1	1
5	6	1	1
@<TRIPOS>SUBSTRUCTURE
1	UNNAMED
