@<TRIPOS>MOLECULE
Cc1ccccc1_1
15	15	1	0	0
SMALL
USER_CHARGES
@<TRIPOS>ATOM
1	C1	2.175094	-0.418512	-0.170276	C.3	1	UNNAMED	0.143500
2	C2	0.710878	-0.119535	-0.042747	C.ar	1	UNNAMED	-0.143500
3	C3	0.125803	0.921186	-0.774403	C.ar	1	UNNAMED	-0.150000
4	C4	-1.242652	1.177375	-0.668434	C.ar	1	UNNAMED	-0.150000
5	C5	-2.038918	0.389443	0.160686	C.ar	1	UNNAMED	-0.150000
6	C6	-1.468376	-0.658390	0.880937	C.ar	1	UNNAMED	-0.150000
7	C7	-0.100209	-0.915286	0.776237	C.ar	1	UNNAMED	-0.150000
8	H2	2.326568	-1.277524	-0.831197	H	1	UNNAMED	0.000000
9	H3	2.721003	0.437228	-0.581119	H	1	UNNAMED	0.000000
10	H4	2.607793	-0.640313	0.810942	H	1	UNNAMED	0.000000
11	H3	0.732365	1.541328	-1.430211	H	1	UNNAMED	0.150000
12	H3	-1.687510	1.991122	-1.234993	H	1	UNNAMED	0.150000
13	H3	-3.103895	0.589358	0.242426	H	1	UNNAMED	0.150000
14	H3	-2.089033	-1.277483	1.523095	H	1	UNNAMED	0.150000
15	H3	0.331088	-1.739997	1.339057	H	1	UNNAMED	0.150000
@<TRIPOS>BOND
1	2	1	1
2	3	2	1
3	4	3	2
4	5	4	1
5	6	5	2
6	7	6	1
7	7	2	2
8	1	8	1
9	1	9	1
10	1	10	1
11	3	11	1
12	4	12	1
13	5	13	1
14	6	14	1
15	7	15	1
@<TRIPOS>SUBSTRUCTURE
1	UNNAMED
