@<TRIPOS>MOLECULE
C(Cl)(Cl)(Cl)F_1
5	4	1	0	0
SMALL
USER_CHARGES
@<TRIPOS>ATOM
1	C1	0.000675	0.002139	0.070012	C.3	1	UNNAMED	1.210000
2	Cl2	-1.667562	0.230014	-0.491376	Cl	1	UNNAMED	-0.290000
3	Cl3	1.038636	1.301399	-0.550190	Cl	1	UNNAMED	-0.290000
4	Cl4	0.614462	-1.577220	-0.458176	Cl	1	UNNAMED	-0.290000
5	F5	0.013789	0.043669	1.429730	F	1	UNNAMED	-0.340000
@<TRIPOS>BOND
1	2	1	1
2	3	1	1
3	4	1	1
4	5	1	1
@<TRIPOS>SUBSTRUCTURE
1	UNNAMED
