@<TRIPOS>MOLECULE
C=CCl_1
6	5	1	0	0
SMALL
USER_CHARGES
@<TRIPOS>ATOM
1	C1	-0.673771	0.306118	-0.042072	C.2	1	UNNAMED	-0.300000
2	C2	0.462482	-0.386975	0.027839	C.2	1	UNNAMED	-0.010000
3	Cl3	1.998714	0.360642	0.132149	Cl	1	UNNAMED	-0.140000
4	H2	-0.678677	1.391341	-0.036290	H	1	UNNAMED	0.150000
5	H3	-1.629039	-0.203157	-0.107044	H	1	UNNAMED	0.150000
6	H3	0.520290	-1.467969	0.025418	H	1	UNNAMED	0.150000
@<TRIPOS>BOND
1	2	1	2
2	3	2	1
3	1	4	1
4	1	5	1
5	2	6	1
@<TRIPOS>SUBSTRUCTURE
1	UNNAMED
