@<TRIPOS>MOLECULE
FS(F)(F)(F)(F)F_1
7	6	1	0	0
SMALL
USER_CHARGES
@<TRIPOS>ATOM
1	F1	0.435945	1.430669	0.537271	F	1	UNNAMED	-0.317000
2	S2	0.000001	0.000001	0.000001	S.3	1	UNNAMED	1.902000
3	F3	-1.122324	0.456088	1.028547	F	1	UNNAMED	-0.317000
4	F4	-1.165840	-0.480368	-0.967258	F	1	UNNAMED	-0.317000
5	F5	-0.049236	-1.437584	0.675613	F	1	UNNAMED	-0.317000
6	F6	0.392429	0.494195	-1.458521	F	1	UNNAMED	-0.317000
7	F7	1.509025	-0.463002	0.184348	F	1	UNNAMED	-0.317000
@<TRIPOS>BOND
1	2	1	1
2	3	2	1
3	4	2	1
4	5	2	1
5	6	2	1
6	7	2	1
@<TRIPOS>SUBSTRUCTURE
1	UNNAMED
